Circuit: * C:\Users\admin\Downloads\tl431_battery_trigger_v2.asc

WARNING: Specified period is not longer than the sum of Trise, Tfall, and Ton for v1.  Increasing period to 1
Limiting rise time of source v1 to 1.9984e-016
Limiting fall time of source v1 to 1.9984e-016
.OP point found by inspection.
Changing Tseed to 1e-008
Changing Tseed to 1e-010

Date: Mon May 01 17:24:23 2023
Total elapsed time: 0.163 seconds.

tnom = 27
temp = 27
method = modified trap
totiter = 2567
traniter = 2567
tranpoints = 1144
accept = 1118
rejected = 24
matrix size = 68
fillins = 47
solver = Normal
Thread vector: 26.0/19.5[2] 2.1/2.4[1] 3.2/3.7[1] 0.7/1.9[1]  2592/500
Matrix Compiler1: 8.14 KB object code size  2.0/1.9/[0.9]
Matrix Compiler2: off  [0.7]/1.5/0.7

